%mem=500mb
%Subst L502 ../bin
%Subst L101 ../bin
%NProcShared=4
#p lsda/gen pseudo=read pop=min Scf=(conver=3,maxcycle=300,dsymm)

Ni9-Ni4-Ni-Ni-Ni4-Ni9.doll

0,37
Ni     3.530000    0.000000   -4.830000
Ni     1.765000   -1.765000   -4.830000
Ni     1.765000    1.765000   -4.830000
Ni     0.000000   -3.530000   -4.830000
Ni     0.000000    0.000000   -4.830000
Ni    -1.765000   -1.765000   -4.830000
Ni     0.000000    3.530000   -4.830000
Ni    -1.765000    1.765000   -4.830000
Ni    -3.530000    0.000000   -4.830000
Ni     1.765000    0.000000   -3.065000
Ni     0.000000   -1.765000   -3.065000
Ni    -1.765000    0.000000   -3.065000
Ni     0.000000    1.765000   -3.065000
Ni     0.000000    0.000000   -1.300000
Ni     0.000000    0.000000    1.300000
Ni     0.000000    1.765000    3.065000
Ni    -1.765000    0.000000    3.065000
Ni     0.000000   -1.765000    3.065000
Ni     1.765000    0.000000    3.065000
Ni    -3.530000    0.000000    4.830000
Ni    -1.765000    1.765000    4.830000
Ni     0.000000    3.530000    4.830000
Ni    -1.765000   -1.765000    4.830000
Ni     0.000000    0.000000    4.830000
Ni     0.000000   -3.530000    4.830000
Ni     1.765000    1.765000    4.830000
Ni     1.765000   -1.765000    4.830000
Ni     3.530000    0.000000    4.830000

1-9 20-28
S   4   1.0
     2.362       0.010376                                                       
     0.8079     -0.238384                                                       
     0.1275      0.665229                                                       
     0.04398     0.477461                                                       
D   5   1.0                                                                       
    28.73        0.065209                                                       
     7.726       0.280565                                                       
     2.496       0.443502                                                       
     0.9166      0.359627                                                       
     0.3105      0.205313                                                       
****
10-19
S 8 1.0
   367916.0      0.000227
    52493.9      0.001929
    11175.8      0.0111
     2925.4      0.05
      882.875    0.1703
      305.538    0.369
      119.551    0.4035
       49.9247   0.1426
SP 6 1.0
      924.525   -0.0052    0.0086
      223.044   -0.0679    0.0609
       74.4211  -0.1319    0.2135
       29.6211   0.2576    0.3944
       12.4721   0.6357    0.3973
        4.2461   0.2838    0.2586
SP 4 1.0
       56.6581   0.0124   -0.018
       21.2063  -0.2218   -0.08
        8.4914  -0.8713    0.2089
        3.6152   1.0285    1.255
P 1 1.0
        1.5145   1.0       1.0
SP 1 1.0
        0.63     1.0       1.0
SP 1 1.0
        0.13     1.0       1.0
S 1 1.0
        1.5145   1.0       1.0
D 4 1.0
       41.0800   0.0405
       11.4130   0.2022
        3.8561   0.4338
        1.3302   0.4897
D 1 1.0
        0.38     1.0
****

1-9 20-28
ECP10CE 2 18
L=2 COMPONENT
  5
    2        .604700        -.398208
    2       1.937000       -3.115495
    2       5.494600      -11.885995
    2      18.089500      -32.509995
    1      53.189400      -11.935028
L=0 COMPONENT
  6
    2        .937900       43.799377
    2       1.066500     -122.488278
    2       1.320100      170.382907
    2       1.604500      -88.123616
    1       2.269800        8.001575
    0       1.709400        3.674683
L=1 COMPONENT
  6
    2        .265300         .027447
    2       1.509200       94.021553
    2       1.812800     -187.115489
    2       2.212000      122.751965
    1       5.485600       12.053374
    0       7.518900        5.363713
     
                                                                                
