%mem=1000MB
%NProcShared=1
%Subst L101 ../../bin
%Subst L502 ../../bin
#p lsda/gen pseudo=read Scf=(conver=5,nodamp,dsymm)

Ag8-chain

0,1
Ag   0.000000    0.000000    0.000000  
Ag   0.000000    0.000000    3.000000  
Ag   0.000000    0.000000    9.000000  
Ag   0.000000    0.000000    12.000000  
Ag   0.000000    0.000000    15.000000  
Ag   0.000000    0.000000    18.000000  
Ag   0.000000    0.000000    21.000000  
Ag   0.000000    0.000000    24.000000  

Ag 0
S   3   1.00
      0.4981000             -0.3233220        
      0.1586000              0.4256450        
      0.0471000              0.7926140        
P   3   1.00
      0.7589000             -0.0285340        
      0.0908000              0.3904450        
      0.0283000              0.7007080        
D   4   1.00
      2.4127000              0.3088530        
      1.0153000              0.4504340        
      0.4093000              0.3383100        
      0.1503000              0.1294400        
****

Ag 0
AG-ECP     3     36
F POTENTIAL
  4
2      1.07079995            -1.54570901       
2      2.85200000            -9.91327572       
2     11.17080021           -44.19367218       
1     32.34180069           -21.82627869       
S-F POTENTIAL
  6
2      1.65400004           171.23280334       
2      1.99160004          -307.32479858       
2      2.69039989           280.42736816       
2      3.73289990          -153.77388000       
1      4.36100006            40.92211151       
0     18.48649979             3.48360991       
P-F POTENTIAL
  6
2      1.21969998           123.84740448       
2      1.48839998          -238.36637878       
2      2.04329991           222.44552612       
2      2.82279992          -103.42056274       
1      4.09789991            30.84042740       
0     15.14739990             5.18727016       
D-F POTENTIAL
  6
2      0.29390001            -0.09446900       
2      0.92500001            -3.48698401       
2      2.09789991           -38.78794098       
2      2.52940011            34.73471451       
1      1.06369996             9.89155388       
0     10.93939972             7.72656393       

