%mem=1gb
%NProcShared=4
%Subst L101 ../../bin
%Subst L502 ../../bin
#p lsda/lanl2dz pop=min Scf=(conver=6,maxcycle=100,dsymm,nodamp) 

Au10-chain

0,1
Au         0.000000    0.000000    0.000000
Au         0.000000    0.000000    3.000000
Au         0.000000    0.000000    6.000000
Au         0.000000    0.000000    9.000000
Au         0.000000    0.000000    12.000000
Au         0.000000    0.000000    15.000000
Au         0.000000    0.000000    18.000000
Au         0.000000    0.000000    21.000000
Au         0.000000    0.000000    24.000000
Au         0.000000    0.000000    27.000000

