%mem=1gb
%NProcShared=1
%Subst L101 ../../bin
%Subst L502 ../../bin
#p lsda/gen pseudo=read pop=reg Scf=(conver=6,maxcycle=100,dsymm,nodamp) 

Au5-chain

1,1
Au         0.000000    0.000000    0.000000
Au         0.000000    0.000000    3.000000
Au         0.000000    0.000000    6.000000
Au         0.000000    0.000000    9.000000
Au         0.000000    0.000000    12.000000

Au     0 
S   3   1.00
      0.4409000             -0.7478000        
      0.2626000              0.8176000        
      0.0617000              0.8113000        
P   3   1.00
      0.6642000             -0.0459000        
      0.1073000              0.3778000        
      0.0319000              0.7233000        
D   4   1.00
      1.3517000              0.4787000        
      0.5149000              0.4582000        
      0.1994000              0.2203000        
      0.0776000              0.0412000        
****

AU     0
AU-ECP     4     68
G POTENTIAL
  6
2      0.96569997            -0.98690200       
2      2.29040003            -9.68630600       
2      6.43839979           -32.57246399       
2     16.36459923          -118.53087616       
2     55.98929977          -286.25463867       
1    171.10139465           -51.27423096       
S-G POTENTIAL
  8
2      1.22479999           -84.96929932       
2      1.43359995           280.17764282       
2      1.89289999          -354.64355469       
2      2.69630003           334.33190918       
2      3.98990011          -219.39260864       
2      6.00549984           170.85874939       
1     14.58259964            56.33872986       
0     39.31069946             6.40929985       
P-G POTENTIAL
  8
2      0.90640002            -6.91190100       
2      1.03110003            72.12546539       
2      1.32869995          -114.97533417       
2      1.90369999           123.61668396       
2      2.83640003           -71.13571167       
2      4.58839989            79.01660156       
1     11.19810009            51.28700638       
0     32.29570007             5.65198278       
D-G POTENTIAL
  8
2      0.29310000            -0.11365700       
2      1.03009999            -2.40402508       
2      2.01859999            62.58111572       
2      3.43919992           255.44717407       
2      5.15789986          -161.80647278       
2      2.51489997          -175.77076721       
1      8.06239986            63.62079239       
0     41.02849960             6.75031996       
F-G POTENTIAL
  8
2      0.43349999           -47.60779953       
2      0.50970000           176.31802368       
2      0.57959998          -168.67689514       
2      0.77109998            54.49244690       
2      2.59349990            37.71539307       
2      8.39070034           -24.13967514       
1      6.92939997            49.16802216       
0     22.25889969             4.75958586       


