%mem=1gb
%NProcShared=1
%Subst L101 ../../bin
%Subst L502 ../../bin
#p lsda/sto-3g pop=reg Scf=(conver=6,maxcycle=100,dsymm) 

H6-chain

0,1
H         0.000000    0.000000    0.000000
H         0.000000    0.000000    2.000000
H         0.000000    0.000000    4.000000
H         0.000000    0.000000    6.000000
H         0.000000    0.000000    8.000000
H         0.000000    0.000000    10.000000

