%mem=1gb 
%NProcShared=4  
%Subst L101 ../../bin  
%Subst L502 ../../bin  
#p lsda/gen pseudo=read pop=min Scf=(conver=5,maxcycle=1000,dsymm,nodamp)

input_Electrodo_Au_3_benzene

0,1 
Au	-2.9126	1.60531                 -8.44795
Au	-0.07144	1.60531         -8.44795
Au	-1.49202	-0.8552         -8.44795
Au	2.76972	1.60531	                -8.44795
Au	1.34914	-0.8552                 -8.44795
Au	-0.07144	-3.31571        -8.44795
Au	-1.49202	0.78514	        -6.12815
Au	1.34914	0.78514                 -6.12815
Au	-0.07144	-1.67537        -6.12815
Au	-0.07144	-0.03503	-4.80000
C	-1.13096	-0.67288	-2.38489
C	-1.10376	0.72582	-2.38489
H	-2.07866	-1.19578	-2.38489
H	-2.03046	1.28512	-2.38489
C	0.06674	-1.39588	-2.38489
C	0.12114	1.40172	-2.38489
H	0.04574	-2.47798	-2.38489
C	1.29174	-0.72008	-2.38489
C	1.31894	0.67872	-2.38489
H	0.14224	2.48382	-2.38489
H	2.21834	-1.27938	-2.38489
H	2.26664	1.20152	-2.38489
Au	-0.07144	-0.03503	 0.40000
Au	-1.49202	0.78514	         1.72815
Au	1.34914	0.78514         	1.72815
Au	-0.07144	-1.67537	1.72815
Au	-2.9126	1.60531          	4.04795
Au	-0.07144	1.60531 	4.04795
Au	-1.49202	-0.8552 	4.04795
Au	2.76972	1.60531	                4.04795
Au	1.34914	-0.8552          	4.04795
Au	-0.07144	-3.31571	4.04795

1     2     3     4     5     6     7     8     9     10     23     24     25     26     27     28     29     30     31     32     
S   3   1.00
      0.4409000             -0.7478000        
      0.2626000              0.8176000        
      0.0617000              0.8113000        
P   3   1.00
      0.6642000             -0.0459000        
      0.1073000              0.3778000        
      0.0319000              0.7233000        
D   4   1.00
      1.3517000              0.4787000        
      0.5149000              0.4582000        
      0.1994000              0.2203000        
      0.0776000              0.0412000        
****
11     12     15     16     18     19     
S   7   1.00 
4233.0000000              0.0012200 
 634.9000000              0.0093420 
 146.1000000              0.0454520 
  42.5000000              0.1546570 
  14.1900000              0.3588660 
   5.1480000              0.4386320 
   1.9670000              0.1459180 
S   2   1.00 
5.1480000             -0.1683670 
0.4962000              1.0600910 
S   1   1.00 
0.1533000              1.0000000 
P   4   1.00 
18.1600000              0.0185390 
 3.9860000              0.1154360 
 1.1430000              0.3861880 
 0.3594000              0.6401140 
P   1   1.00 
0.1146000              1.0000000 
**** 
13     14     17     20     21     22     
 S   3   1.00 
19.2384000              0.0328280 
 2.8987000              0.2312040 
 0.6535000              0.8172260 
S   1   1.00 
0.1776000              1.0000000 
**** 

1     2     3     4     5     6     7     8     9     10     23     24     25     26     27     28     29     30     31     32     
AU-ECP     4     68
G POTENTIAL
  6
2      0.96569997            -0.98690200       
2      2.29040003            -9.68630600       
2      6.43839979           -32.57246399       
2     16.36459923          -118.53087616       
2     55.98929977          -286.25463867       
1    171.10139465           -51.27423096       
S-G POTENTIAL
  8
2      1.22479999           -84.96929932       
2      1.43359995           280.17764282       
2      1.89289999          -354.64355469       
2      2.69630003           334.33190918       
2      3.98990011          -219.39260864       
2      6.00549984           170.85874939       
1     14.58259964            56.33872986       
0     39.31069946             6.40929985       
P-G POTENTIAL
  8
2      0.90640002            -6.91190100       
2      1.03110003            72.12546539       
2      1.32869995          -114.97533417       
2      1.90369999           123.61668396       
2      2.83640003           -71.13571167       
2      4.58839989            79.01660156       
1     11.19810009            51.28700638       
0     32.29570007             5.65198278       
D-G POTENTIAL
  8
2      0.29310000            -0.11365700       
2      1.03009999            -2.40402508       
2      2.01859999            62.58111572       
2      3.43919992           255.44717407       
2      5.15789986          -161.80647278       
2      2.51489997          -175.77076721       
1      8.06239986            63.62079239       
0     41.02849960             6.75031996       
F-G POTENTIAL
  8
2      0.43349999           -47.60779953       
2      0.50970000           176.31802368       
2      0.57959998          -168.67689514       
2      0.77109998            54.49244690       
2      2.59349990            37.71539307       
2      8.39070034           -24.13967514       
1      6.92939997            49.16802216       
0     22.25889969             4.75958586       


