%mem=1000MB
%NProcShared=4
%Subst L101 ../../bin
%Subst L502 ../../bin
#p lsda/gen pseudo=read Scf=(conver=5,dsymm,nodamp)

Al9-Al4-Al-Al-Al4-Al9

0,1
Al  -4.000000    0.000000   -6.000000  
Al   0.000000    4.000000   -6.000000  
Al   0.000000    0.000000   -6.000000  
Al  -2.000000    2.000000   -6.000000  
Al  -2.000000   -2.000000   -6.000000  
Al   2.000000    2.000000   -6.000000  
Al   0.000000   -4.000000   -6.000000  
Al   2.000000   -2.000000   -6.000000  
Al   4.000000    0.000000   -6.000000  
Al  -2.000000    0.000000   -4.000000  
Al   0.000000    2.000000   -4.000000  
Al   0.000000   -2.000000   -4.000000  
Al   2.000000    0.000000   -4.000000  
Al   0.000000    0.000000   -2.000000  
Al   0.000000    0.000000    2.000000  
Al  -2.000000    0.000000    4.000000  
Al   0.000000    2.000000    4.000000  
Al   0.000000   -2.000000    4.000000  
Al   2.000000    0.000000    4.000000  
Al  -4.000000    0.000000    6.000000  
Al  -2.000000    2.000000    6.000000  
Al   0.000000    4.000000    6.000000  
Al  -2.000000   -2.000000    6.000000  
Al   2.000000    2.000000    6.000000  
Al   2.000000   -2.000000    6.000000  
Al   0.000000    0.000000    6.000000  
Al   0.000000   -4.000000    6.000000  
Al   4.000000    0.000000    6.000000  

Al 0           
S    4  1.0
     9.351    -0.002138                                                         
     0.9572   -0.226407                                                         
     0.1586    0.752703                                                         
     0.05381   0.393166                                                         
P    4  1.0  
     3.906    -0.008570                                                         
     1.576    -0.015353                                                         
     0.1977    0.485440                                                         
     0.05730   0.622006                                                         
**** 
                                                              
Al 0            
ECP10CE 2 10 
L=2 COMPONENT 
  4
    2       1.221100        -.537981
    2       3.368100       -5.459756
    2       9.750000      -16.655343
    1      29.269300       -6.475215
L=0 COMPONENT 
  5
    2       1.563100      -56.205213
    2       1.771200      149.689955
    2       2.062300      -91.454394
    1       3.358300        3.728949
    0       2.130000        3.037994
L=1 COMPONENT
  5
    2       1.823100       93.675606
    2       2.124900     -189.888968
    2       2.570500      110.248104
    1       1.757500        4.199596
    0       6.769300        5.003356

