%Subst L502 ../../bin
%Subst L101 ../../bin
%nproc=8
#p LSDA/gen pseudo=read scf=(conver=5,dsymm,maxcyc=300) test

Pt9-Pt4-Pt-Pt-Pt4-Pt9

0,1
78           -1.960000    1.960000    9.460000
78           -3.920000    0.000000    9.460000
78            1.960000    1.960000    9.460000
78            0.000000    0.000000    9.460000
78           -1.960000   -1.960000    9.460000
78            0.000000    3.920000    9.460000
78            3.920000    0.000000    9.460000
78            1.960000   -1.960000    9.460000
78            0.000000   -3.920000    9.460000
78            0.000000    1.960000    7.500000
78           -1.960000    0.000000    7.500000
78            1.960000    0.000000    7.500000
78            0.000000   -1.960000    7.500000
78            0.000000    0.100000    5.540000
78            0.000000    0.000000    3.080000
78            0.000000    1.960000    1.120000
78           -1.960000    0.000000    1.120000
78            1.960000    0.000000    1.120000
78            0.000000   -1.960000    1.120000
78            0.000000    3.920000   -0.840000
78           -1.960000    1.960000   -0.840000
78           -3.920000    0.000000   -0.840000
78            1.960000    1.960000   -0.840000
78            0.000000   -3.920000   -0.840000
78            0.000000    0.000000   -0.840000
78           -1.960000   -1.960000   -0.840000
78            3.920000    0.000000   -0.840000
78            1.960000   -1.960000   -0.840000

@Pt9-Pt4-Pt-Pt-Pt4-Pt9.gbssmall

