%mem=2000mb
%nproc=4
%Subst L101 ../bin
%Subst L502 ../bin
#p blyp/gen pseudo=read scf=(maxcycle=300,conver=5,dsymm)

Al-benzene-Al

0,1
Al    8.25600    9.83840   31.62968
Al    9.50400   12.00000   31.62968
Al   10.75200   14.16160   31.62968
Al   12.00000   16.32320   31.62968
Al   10.75200    9.83840   31.62968
Al   12.00000   12.00000   31.62968
Al   13.24800   14.16160   31.62968
Al   13.24800    9.83840   31.62968
Al   14.49600   12.00000   31.62968
Al   15.74400    9.83840   31.62968
Al    9.50400   10.55893   29.59169
Al   10.75200   12.72053   29.59169
Al   12.00000   14.88213   29.59169
Al   12.00000   10.55893   29.59169
Al   13.24800   12.72053   29.59169
Al   14.49600   10.55893   29.59169
Al   10.75200   11.27947   27.55372
Al   12.00000   13.44107   27.55372
Al   13.24800   11.27947   27.55372
Al   11.99982   12.00568   25.66820
 C   11.99920   13.43669   23.97027
 C   10.75770   12.72160   23.98759
 C   10.75925   11.28891   24.01333
 C   11.99972   10.57114   24.02376
 C   13.23998   11.28928   24.01283
 C   13.24094   12.72203   23.98729
 H   11.99899   14.52551   23.94972
 H    9.81499   13.26589   23.97784
 H    9.81611   10.74465   24.02366
 H   11.99988    9.48276   24.04349
 H   14.18330   10.74527   24.02289
 H   14.18349   13.26664   23.97695
Al   11.99972   11.99719   22.33112
Al   10.75200   11.27947   20.44626
Al   12.00000   13.44107   20.44626
Al   13.24800   11.27947   20.44626
Al    9.50400   10.55893   18.40829
Al   10.75200   12.72053   18.40829
Al   12.00000   14.88213   18.40829
Al   12.00000   10.55893   18.40829
Al   13.24800   12.72053   18.40829
Al   14.49600   10.55893   18.40829
Al    8.25600    9.83840   16.37032
Al    9.50400   12.00000   16.37032
Al   10.75200   14.16160   16.37032
Al   12.00000   16.32320   16.37032
Al   10.75200    9.83840   16.37032
Al   12.00000   12.00000   16.37032
Al   13.24800   14.16160   16.37032
Al   13.24800    9.83840   16.37032
Al   14.49600   12.00000   16.37032
Al   15.74400    9.83840   16.37032

C 0
sto-3g
****
H 0
sto-3g
****
Al 0
S    4  1.0
     9.351    -0.002138                                                         
     0.9572   -0.226407                                                         
     0.1586    0.752703                                                         
     0.05381   0.393166                                                         
P    4  1.0  
     3.906    -0.008570                                                         
     1.576    -0.015353                                                         
     0.1977    0.485440                                                         
     0.05730   0.622006                                                         
**** 
                                                              
Al  0
ECP10CE 2 10 
L=2 COMPONENT 
  4
    2       1.221100        -.537981
    2       3.368100       -5.459756
    2       9.750000      -16.655343
    1      29.269300       -6.475215
L=0 COMPONENT 
  5
    2       1.563100      -56.205213
    2       1.771200      149.689955
    2       2.062300      -91.454394
    1       3.358300        3.728949
    0       2.130000        3.037994
L=1 COMPONENT
  5
    2       1.823100       93.675606
    2       2.124900     -189.888968
    2       2.570500      110.248104
    1       1.757500        4.199596
    0       6.769300        5.003356

