%mem=1Gb
%NProcShared=4
%Subst L101 ../bin
%Subst L502 ../bin
#p ULSDA/gen pseudo=read Scf=(conver=6,nodamp,nosymm)

Ni4-Ni-Ni-Ni4

0,15
Ni     1.765000    0.000000   -3.065000
Ni     0.000000   -1.765000   -3.065000
Ni    -1.765000    0.000000   -3.065000
Ni     0.000000    1.765000   -3.065000
Ni     0.000000    0.000000   -1.300000
Ni     0.000000    0.000000    1.300000
Ni     0.000000    1.765000    3.065000
Ni    -1.765000    0.000000    3.065000
Ni     0.000000   -1.765000    3.065000
Ni     1.765000    0.000000    3.065000

Ni 0
S   4   1.0
     2.362       0.010376                                                       
     0.8079     -0.238384                                                       
     0.1275      0.665229                                                       
     0.04398     0.477461                                                       
D   5   1.0                                                                       
    28.73        0.065209                                                       
     7.726       0.280565                                                       
     2.496       0.443502                                                       
     0.9166      0.359627                                                       
     0.3105      0.205313                                                       
****
                                                                                
Ni  0
ECP10CE 2 18
L=2 COMPONENT
  5
    2        .604700        -.398208
    2       1.937000       -3.115495
    2       5.494600      -11.885995
    2      18.089500      -32.509995
    1      53.189400      -11.935028
L=0 COMPONENT
  6
    2        .937900       43.799377
    2       1.066500     -122.488278
    2       1.320100      170.382907
    2       1.604500      -88.123616
    1       2.269800        8.001575
    0       1.709400        3.674683
L=1 COMPONENT
  6
    2        .265300         .027447
    2       1.509200       94.021553
    2       1.812800     -187.115489
    2       2.212000      122.751965
    1       5.485600       12.053374
    0       7.518900        5.363713
    
    
    
    
    
