%mem=900MB
%Subst L502 ../bin
%Subst L101 ../bin
%NProcShared=4
#p UBPBE/gen pseudo=read guess=mix Scf=(maxcycle=200,conver=4,dsymm,nodamp)

Mn9-Mn4-Mn-Mn-Mn4-Mn9.lan

0 141
Mn      0.0000  -3.2000 h
Mn      3.2000  -3.2000 h
Mn      -3.2000 0.0000  h
Mn      3.2000  0.0000  h
Mn      -3.2000 3.2000  h
Mn      3.2000  3.2000  h
Mn      0.0000  0.0000 h
Mn      -3.2000 -3.2000 h
Mn      0.0000  3.2000 h
Mn      -1.6000 -1.6000 f
Mn      1.6000  -1.6000 f
Mn      -1.6000 1.6000  f
Mn      1.6000  1.6000  f
Mn      0.000 0.000 b
Mn      0.000 0.000 1.6000
Mn      -1.6000 -1.6000 0.0000
Mn      1.6000  -1.6000 0.0000
Mn      -1.6000 1.6000  0.0000
Mn      1.6000  1.6000  0.0000
Mn      0.0000  -3.2000 -1.6000
Mn      3.2000  -3.2000 -1.6000
Mn      -3.2000 0.0000  -1.6000
Mn      3.2000  0.0000  -1.6000
Mn      -3.2000 3.2000  -1.6000
Mn      3.2000  3.2000  -1.6000
Mn      0.0000  0.0000  -1.6000
Mn      -3.2000 -3.2000 -1.6000
Mn      0.0000  3.2000  -1.6000

b=7.6
f=9.2
h=10.8

1-9 20-28
S   4   1.00
      1.8050000              0.0279520
      0.7001000             -0.2659690
      0.1120000              0.5651140
      0.0411700              0.5751150
P    4  1.0
     3.906    -0.008570
     1.576    -0.015353
     0.1977    0.485440
     0.05730   0.622006
D   5   1.00
     21.5400000              0.0605270
      5.6700000              0.2677310
      1.8300000              0.4413160
      0.6874000              0.3672010
      0.2414000              0.2049740
****
10-19
lanl2dz
****

1-9 20-28
MN-ECP     2     18
D POTENTIAL
  5
2      0.45190001            -0.32237199
2      1.38629997            -2.42131090
2      3.74930000            -9.07335377
2     11.57509995           -23.51095963
1     33.64369965           -11.55800056
S-D POTENTIAL
  6
2      0.74610001            50.56281281
2      0.83649999          -139.92572021
2      1.00870001           187.17520142
2      1.19529998           -96.70987701
1      1.95889997            18.29615593
0      8.92039967             3.13673401
P-D POTENTIAL
  6
2      1.09370005            35.46660995
2      1.48570001          -103.00804138
2      1.97080004           106.40811157
2      2.59910011           -43.28920364
1      1.04449999            10.65728283
0      3.00909996             5.33598995
10-19
lanl2dz







