%mem=250mb
%Subst L502 ../bin
%Subst L101 ../bin
%NProcShared=4
#p lsda/gen pseudo=read gfinput Scf=(dsymm,conver=6,nodamp)

Au-nanocontact

0,1
Au     2.036000     0.000000     3.376438
Au     0.000000     2.036000     3.376438
Au    -2.036000     0.000000     3.376438
Au     0.000000    -2.036000     3.376438
Au     0.000000     0.000000     1.397597
Au     0.000000     0.000000    -1.397597
Au    -2.036000     0.000000    -3.376438
Au     0.000000    -2.036000    -3.376438
Au     2.036000     0.000000    -3.376438
Au     0.000000     2.036000    -3.376438

1-4 7-10    
S      3        1.00
       0.4409                   -0.7478
       0.2626                    0.8176
       0.0617                    0.8113
****
5-6
lanl2dz
****

1-4 7-10
shf
5-6    
lanl2dz
                               
