$ RunGauss
%mem=1gb  
%Subst L101 ../bin
%Subst L502 ../bin
%NProcShared=4
#p blyp/gen Scf=(dsymm,maxcycle=200,conver=5) pop=reg 

hydrophene-ribbon

0,1
 H     5.095633     8.053766     0.793766
 H     4.397039     2.003766     0.793766
 H     4.397039     4.423766     0.793766
 H     4.397039     6.843766     0.793766
 H     4.397039     9.263766     0.793766
 H     4.397039    11.683766     0.793766
 H     4.397039    14.103766     0.793766
 H     4.397039    16.523766     0.793766
 H     4.397039    18.943766     0.793766
 H     4.397039    21.363766     0.793766
 H     5.095633     0.793766     0.793766
 H     5.095633     3.213766     0.793766
 H     5.095633     5.633766     0.793766
 H     5.095633    10.473766     0.793766
 H     5.095633    12.893766     0.793766
 H     5.095633    15.313766     0.793766
 H     5.095633    17.733766     0.793766
 H     5.095633    20.153766     0.793766
 H     5.095633    22.573766     0.793766
 H     6.492820     0.793766     0.793766
 H     6.492820     3.213766     0.793766
 H     6.492820     5.633766     0.793766
 H     6.492820    10.473766     0.793766
 H     6.492820     8.053766     0.793766
 H     6.492820    12.893766     0.793766
 H     6.492820    15.313766     0.793766
 H     6.492820    17.733766     0.793766
 H     6.492820    20.153766     0.793766
 H     6.492820    22.573766     0.793766
 H     7.191414     2.003766     0.793766
 H     7.191414     4.423766     0.793766
 H     7.191414     6.843766     0.793766
 H     7.191414     9.263766     0.793766
 H     7.191414    11.683766     0.793766
 H     7.191414    14.103766     0.793766
 H     7.191414    16.523766     0.793766
 H     7.191414    18.943766     0.793766
 H     7.191414    21.363766     0.793766
 H     8.588602     2.003766     0.793766
 H     8.588602     4.423766     0.793766
 H     8.588602     6.843766     0.793766
 H     8.588602     9.263766     0.793766
 H     8.588602    11.683766     0.793766
 H     8.588602    14.103766     0.793766
 H     8.588602    16.523766     0.793766
 H     8.588602    18.943766     0.793766
 H     8.588602    21.363766     0.793766
 H     9.287196     0.793766     0.793766
 H     9.287196     3.213766     0.793766
 H     9.287196     5.633766     0.793766
 H     9.287196     8.053766     0.793766
 H     9.287196    10.473766     0.793766
 H     9.287196    12.893766     0.793766
 H     9.287196    15.313766     0.793766
 H     9.287196    17.733766     0.793766
 H     9.287196    20.153766     0.793766
 H     9.287196    22.573766     0.793766
 H    10.684383     0.793766     0.793766
 H    10.684383     3.213766     0.793766
 H    10.684383     5.633766     0.793766
 H    10.684383     8.053766     0.793766
 H    10.684383    10.473766     0.793766
 H    10.684383    12.893766     0.793766
 H    10.684383    15.313766     0.793766
 H    10.684383    17.733766     0.793766
 H    10.684383    20.153766     0.793766
 H    10.684383    22.573766     0.793766
 H    11.382977     2.003766     0.793766
 H    11.382977     4.423766     0.793766
 H    11.382977     6.843766     0.793766
 H    11.382977     9.263766     0.793766
 H    11.382977    11.683766     0.793766
 H    11.382977    14.103766     0.793766
 H    11.382977    16.523766     0.793766
 H    11.382977    18.943766     0.793766
 H    11.382977    21.363766     0.793766
 H    12.780165     2.003766     0.793766
 H    12.780165     4.423766     0.793766
 H    12.780165     6.843766     0.793766
 H    12.780165     9.263766     0.793766
 H    12.780165    11.683766     0.793766
 H    12.780165    14.103766     0.793766
 H    12.780165    16.523766     0.793766
 H    12.780165    18.943766     0.793766
 H    12.780165    21.363766     0.793766
 H    13.478759     0.793766     0.793766
 H    13.478759     3.213766     0.793766
 H    13.478759     5.633766     0.793766
 H    13.478759     8.053766     0.793766
 H    13.478759    10.473766     0.793766
 H    13.478759    12.893766     0.793766
 H    13.478759    15.313766     0.793766
 H    13.478759    17.733766     0.793766
 H    13.478759    20.153766     0.793766
 H    13.478759    22.573766     0.793766
 H    14.875946     0.793766     0.793766
 H    14.875946     3.213766     0.793766
 H    14.875946     5.633766     0.793766
 H    14.875946     8.053766     0.793766
 H    14.875946    10.473766     0.793766
 H    14.875946    12.893766     0.793766
 H    14.875946    15.313766     0.793766
 H    14.875946    17.733766     0.793766
 H    14.875946    20.153766     0.793766
 H    14.875946    22.573766     0.793766
 H    15.574540     2.003766     0.793766
 H    15.574540     4.423766     0.793766
 H    15.574540     6.843766     0.793766
 H    15.574540     9.263766     0.793766
 H    15.574540    11.683766     0.793766
 H    15.574540    14.103766     0.793766
 H    15.574540    16.523766     0.793766
 H    15.574540    18.943766     0.793766
 H    15.574540    21.363766     0.793766
 H    16.971728     2.003766     0.793766
 H    16.971728     4.423766     0.793766
 H    16.971728     6.843766     0.793766
 H    16.971728     9.263766     0.793766
 H    16.971728    11.683766     0.793766
 H    16.971728    14.103766     0.793766
 H    16.971728    16.523766     0.793766
 H    16.971728    18.943766     0.793766
 H    16.971728    21.363766     0.793766
 H    17.670322     0.793766     0.793766
 H    17.670322     3.213766     0.793766
 H    17.670322     5.633766     0.793766
 H    17.670322     8.053766     0.793766
 H    17.670322    10.473766     0.793766
 H    17.670322    12.893766     0.793766
 H    17.670322    15.313766     0.793766
 H    17.670322    17.733766     0.793766
 H    17.670322    20.153766     0.793766
 H    17.670322    22.573766     0.793766
 H    19.067509     0.793766     0.793766
 H    19.067509     3.213766     0.793766
 H    19.067509     5.633766     0.793766
 H    19.067509     8.053766     0.793766
 H    19.067509    10.473766     0.793766
 H    19.067509    12.893766     0.793766
 H    19.067509    15.313766     0.793766
 H    19.067509    17.733766     0.793766
 H    19.067509    20.153766     0.793766
 H    19.067509    22.573766     0.793766
 H    19.766103     2.003766     0.793766
 H    19.766103     4.423766     0.793766
 H    19.766103     6.843766     0.793766
 H    19.766103     9.263766     0.793766
 H    19.766103    11.683766     0.793766
 H    19.766103    14.103766     0.793766
 H    19.766103    16.523766     0.793766
 H    19.766103    18.943766     0.793766
 H    19.766103    21.363766     0.793766
 H    21.163291     2.003766     0.793766
 H    21.163291     4.423766     0.793766
 H    21.163291     6.843766     0.793766
 H    21.163291     9.263766     0.793766
 H    21.163291    11.683766     0.793766
 H    21.163291    14.103766     0.793766
 H    21.163291    16.523766     0.793766
 H    21.163291    18.943766     0.793766
 H    21.163291    21.363766     0.793766
 H    21.861885     0.793766     0.793766
 H    21.861885     3.213766     0.793766
 H    21.861885     5.633766     0.793766
 H    21.861885     8.053766     0.793766
 H    21.861885    10.473766     0.793766
 H    21.861885    12.893766     0.793766
 H    21.861885    15.313766     0.793766
 H    21.861885    17.733766     0.793766
 H    21.861885    20.153766     0.793766
 H    21.861885    22.573766     0.793766
 H    23.259072     0.793766     0.793766
 H    23.259072     3.213766     0.793766
 H    23.259072     5.633766     0.793766
 H    23.259072     8.053766     0.793766
 H    23.259072    10.473766     0.793766
 H    23.259072    12.893766     0.793766
 H    23.259072    15.313766     0.793766
 H    23.259072    17.733766     0.793766
 H    23.259072    20.153766     0.793766
 H    23.259072    22.573766     0.793766
 H    23.957666     2.003766     0.793766
 H    23.957666     4.423766     0.793766
 H    23.957666     6.843766     0.793766
 H    23.957666     9.263766     0.793766
 H    23.957666    11.683766     0.793766
 H    23.957666    14.103766     0.793766
 H    23.957666    16.523766     0.793766
 H    23.957666    18.943766     0.793766
 H    23.957666    21.363766     0.793766
 H    25.354854     2.003766     0.793766
 H    25.354854     4.423766     0.793766
 H    25.354854     6.843766     0.793766
 H    25.354854     9.263766     0.793766
 H    25.354854    11.683766     0.793766
 H    25.354854    14.103766     0.793766
 H    25.354854    16.523766     0.793766
 H    25.354854    18.943766     0.793766
 H    25.354854    21.363766     0.793766
 H    26.053448     0.793766     0.793766
 H    26.053448     3.213766     0.793766
 H    26.053448     5.633766     0.793766
 H    26.053448     8.053766     0.793766
 H    26.053448    10.473766     0.793766
 H    26.053448    12.893766     0.793766
 H    26.053448    15.313766     0.793766
 H    26.053448    17.733766     0.793766
 H    26.053448    20.153766     0.793766
 H    26.053448    22.573766     0.793766
 H    27.450635     0.793766     0.793766
 H    27.450635     3.213766     0.793766
 H    27.450635     5.633766     0.793766
 H    27.450635     8.053766     0.793766
 H    27.450635    10.473766     0.793766
 H    27.450635    12.893766     0.793766
 H    27.450635    15.313766     0.793766
 H    27.450635    17.733766     0.793766
 H    27.450635    20.153766     0.793766
 H    27.450635    22.573766     0.793766
 H    28.149229     2.003766     0.793766
 H    28.149229     4.423766     0.793766
 H    28.149229     6.843766     0.793766
 H    28.149229     9.263766     0.793766
 H    28.149229    11.683766     0.793766
 H    28.149229    14.103766     0.793766
 H    28.149229    16.523766     0.793766
 H    28.149229    18.943766     0.793766
 H    28.149229    21.363766     0.793766
 H    29.546417     2.003766     0.793766
 H    29.546417     4.423766     0.793766
 H    29.546417     6.843766     0.793766
 H    29.546417     9.263766     0.793766
 H    29.546417    11.683766     0.793766
 H    29.546417    14.103766     0.793766
 H    29.546417    16.523766     0.793766
 H    29.546417    18.943766     0.793766
 H    29.546417    21.363766     0.793766
 H    30.245011     0.793766     0.793766
 H    30.245011     3.213766     0.793766
 H    30.245011     5.633766     0.793766
 H    30.245011     8.053766     0.793766
 H    30.245011    10.473766     0.793766
 H    30.245011    12.893766     0.793766
 H    30.245011    15.313766     0.793766
 H    30.245011    17.733766     0.793766
 H    30.245011    20.153766     0.793766
 H    30.245011    22.573766     0.793766
 H    31.642198     0.793766     0.793766
 H    31.642198     3.213766     0.793766
 H    31.642198     5.633766     0.793766
 H    31.642198     8.053766     0.793766
 H    31.642198    10.473766     0.793766
 H    31.642198    12.893766     0.793766
 H    31.642198    15.313766     0.793766
 H    31.642198    17.733766     0.793766
 H    31.642198    20.153766     0.793766
 H    31.642198    22.573766     0.793766
 H    32.340792     2.003766     0.793766
 H    32.340792     4.423766     0.793766
 H    32.340792     6.843766     0.793766
 H    32.340792     9.263766     0.793766
 H    32.340792    11.683766     0.793766
 H    32.340792    14.103766     0.793766
 H    32.340792    16.523766     0.793766
 H    32.340792    18.943766     0.793766
 H    32.340792    21.363766     0.793766
 H    33.737980     2.003766     0.793766
 H    33.737980     4.423766     0.793766
 H    33.737980     6.843766     0.793766
 H    33.737980     9.263766     0.793766
 H    33.737980    11.683766     0.793766
 H    33.737980    14.103766     0.793766
 H    33.737980    16.523766     0.793766
 H    33.737980    18.943766     0.793766
 H    33.737980    21.363766     0.793766
 H    34.436574     0.793766     0.793766
 H    34.436574     3.213766     0.793766
 H    34.436574     5.633766     0.793766
 H    34.436574     8.053766     0.793766
 H    34.436574    10.473766     0.793766
 H    34.436574    12.893766     0.793766
 H    34.436574    15.313766     0.793766
 H    34.436574    17.733766     0.793766
 H    34.436574    20.153766     0.793766
 H    34.436574    22.573766     0.793766
 H    35.833761     0.793766     0.793766
 H    35.833761     3.213766     0.793766
 H    35.833761     5.633766     0.793766
 H    35.833761     8.053766     0.793766
 H    35.833761    10.473766     0.793766
 H    35.833761    12.893766     0.793766
 H    35.833761    15.313766     0.793766
 H    35.833761    17.733766     0.793766
 H    35.833761    20.153766     0.793766
 H    35.833761    22.573766     0.793766
 H    36.532355     2.003766     0.793766
 H    36.532355     4.423766     0.793766
 H    36.532355     6.843766     0.793766
 H    36.532355     9.263766     0.793766
 H    36.532355    11.683766     0.793766
 H    36.532355    14.103766     0.793766
 H    36.532355    16.523766     0.793766
 H    36.532355    18.943766     0.793766
 H    36.532355    21.363766     0.793766
 H    37.929543     2.003766     0.793766
 H    37.929543     4.423766     0.793766
 H    37.929543     6.843766     0.793766
 H    37.929543     9.263766     0.793766
 H    37.929543    11.683766     0.793766
 H    37.929543    14.103766     0.793766
 H    37.929543    16.523766     0.793766
 H    37.929543    18.943766     0.793766
 H    37.929543    21.363766     0.793766
 H    38.628136     0.793766     0.793766
 H    38.628136     3.213766     0.793766
 H    38.628136     5.633766     0.793766
 H    38.628136     8.053766     0.793766
 H    38.628136    10.473766     0.793766
 H    38.628136    12.893766     0.793766
 H    38.628136    15.313766     0.793766
 H    38.628136    17.733766     0.793766
 H    38.628136    20.153766     0.793766
 H    38.628136    22.573766     0.793766
 H    40.025324     0.793766     0.793766
 H    40.025324     3.213766     0.793766
 H    40.025324     5.633766     0.793766
 H    40.025324     8.053766     0.793766
 H    40.025324    10.473766     0.793766
 H    40.025324    15.313766     0.793766
 H    40.025324    17.733766     0.793766
 H    40.025324    20.153766     0.793766
 H    40.025324    22.573766     0.793766
 H    40.723918     2.003766     0.793766
 H    40.723918     4.423766     0.793766
 H    40.723918     6.843766     0.793766
 H    40.723918     9.263766     0.793766
 H    40.723918    11.683766     0.793766
 H    40.723918    14.103766     0.793766
 H    40.723918    16.523766     0.793766
 H    40.723918    18.943766     0.793766
 H    40.723918    21.363766     0.793766
 H    40.025324    12.893766     0.793766

H 0
S  1   1.0     
   0.25     1.0
****

