$ RunGauss
%mem=1gb  
%Subst L101 ../bin
%Subst L502 ../bin
%NProcShared=4
#p ulsda/gen guess=mix pseudo=read Scf=(dsymm,maxcycle=200,conver=5) pop=reg 

nanographene

0,3
 C     9.176892     2.003766     0.793766
 C     9.176892     4.423766     0.793766
 C     9.176892     6.843766     0.793766
 C     9.176892     9.263766     0.793766
 C     9.176892    11.683766     0.793766
 C     9.176892    14.103766     0.793766
 C     9.176892    16.523766     0.793766
 C     9.176892    18.943766     0.793766
 C     9.176892    21.363766     0.793766
 C     9.875486     3.213766     0.793766
 C     9.875486     5.633766     0.793766
 C     9.875486     8.053766     0.793766
 C     9.875486    10.473766     0.793766
 C     9.875486    12.893766     0.793766
 C     9.875486    15.313766     0.793766
 C     9.875486    17.733766     0.793766
 C     9.875486    20.153766     0.793766
 C    11.272673     3.213766     0.793766
 C    11.272673     5.633766     0.793766
 C    11.272673     8.053766     0.793766
 C    11.272673    10.473766     0.793766
 C    11.272673    12.893766     0.793766
 C    11.272673    15.313766     0.793766
 C    11.272673    17.733766     0.793766
 C    11.272673    20.153766     0.793766
 C    11.971267     2.003766     0.793766
 C    11.971267     4.423766     0.793766
 C    11.971267     6.843766     0.793766
 C    11.971267     9.263766     0.793766
 C    11.971267    11.683766     0.793766
 C    11.971267    14.103766     0.793766
 C    11.971267    16.523766     0.793766
 C    11.971267    18.943766     0.793766
 C    11.971267    21.363766     0.793766
 C    13.368455     2.003766     0.793766
 C    13.368455     4.423766     0.793766
 C    13.368455     6.843766     0.793766
 C    13.368455     9.263766     0.793766
 C    13.368455    11.683766     0.793766
 C    13.368455    14.103766     0.793766
 C    13.368455    16.523766     0.793766
 C    13.368455    18.943766     0.793766
 C    13.368455    21.363766     0.793766
 C    14.067049     3.213766     0.793766
 C    14.067049     5.633766     0.793766
 C    14.067049     8.053766     0.793766
 C    14.067049    10.473766     0.793766
 C    14.067049    12.893766     0.793766
 C    14.067049    15.313766     0.793766
 C    14.067049    17.733766     0.793766
 C    14.067049    20.153766     0.793766
 C    15.464236     3.213766     0.793766
 C    15.464236     5.633766     0.793766
 C    15.464236     8.053766     0.793766
 C    15.464236    10.473766     0.793766
 C    15.464236    12.893766     0.793766
 C    15.464236    15.313766     0.793766
 C    15.464236    17.733766     0.793766
 C    15.464236    20.153766     0.793766
 C    16.162830     2.003766     0.793766
 C    16.162830     4.423766     0.793766
 C    16.162830     6.843766     0.793766
 C    16.162830     9.263766     0.793766
 C    16.162830    11.683766     0.793766
 C    16.162830    14.103766     0.793766
 C    16.162830    16.523766     0.793766
 C    16.162830    18.943766     0.793766
 C    16.162830    21.363766     0.793766
 C    17.560018     2.003766     0.793766
 C    17.560018     4.423766     0.793766
 C    17.560018     6.843766     0.793766
 C    17.560018     9.263766     0.793766
 C    17.560018    11.683766     0.793766
 C    17.560018    14.103766     0.793766
 C    17.560018    16.523766     0.793766
 C    17.560018    18.943766     0.793766
 C    17.560018    21.363766     0.793766
 C    18.258612     3.213766     0.793766
 C    18.258612     5.633766     0.793766
 C    18.258612     8.053766     0.793766
 C    18.258612    10.473766     0.793766
 C    18.258612    12.893766     0.793766
 C    18.258612    15.313766     0.793766
 C    18.258612    17.733766     0.793766
 C    18.258612    20.153766     0.793766
 C    19.655799     3.213766     0.793766
 C    19.655799     5.633766     0.793766
 C    19.655799     8.053766     0.793766
 C    19.655799    10.473766     0.793766
 C    19.655799    12.893766     0.793766
 C    19.655799    15.313766     0.793766
 C    19.655799    17.733766     0.793766
 C    19.655799    20.153766     0.793766
 C    20.354393     2.003766     0.793766
 C    20.354393     4.423766     0.793766
 C    20.354393     6.843766     0.793766
 C    20.354393     9.263766     0.793766
 C    20.354393    11.683766     0.793766
 C    20.354393    14.103766     0.793766
 C    20.354393    16.523766     0.793766
 C    20.354393    18.943766     0.793766
 C    20.354393    21.363766     0.793766
 C    21.751581     2.003766     0.793766
 C    21.751581     4.423766     0.793766
 C    21.751581     6.843766     0.793766
 C    21.751581     9.263766     0.793766
 C    21.751581    11.683766     0.793766
 C    21.751581    14.103766     0.793766
 C    21.751581    16.523766     0.793766
 C    21.751581    18.943766     0.793766
 C    21.751581    21.363766     0.793766
 C    22.450175     3.213766     0.793766
 C    22.450175     5.633766     0.793766
 C    22.450175     8.053766     0.793766
 C    22.450175    10.473766     0.793766
 C    22.450175    12.893766     0.793766
 C    22.450175    15.313766     0.793766
 C    22.450175    17.733766     0.793766
 C    22.450175    20.153766     0.793766
 C    23.847362     3.213766     0.793766
 C    23.847362     5.633766     0.793766
 C    23.847362     8.053766     0.793766
 C    23.847362    10.473766     0.793766
 C    23.847362    12.893766     0.793766
 C    23.847362    15.313766     0.793766
 C    23.847362    17.733766     0.793766
 C    23.847362    20.153766     0.793766
 C    24.545956     2.003766     0.793766
 C    24.545956     4.423766     0.793766
 C    24.545956     6.843766     0.793766
 C    24.545956     9.263766     0.793766
 C    24.545956    11.683766     0.793766
 C    24.545956    14.103766     0.793766
 C    24.545956    16.523766     0.793766
 C    24.545956    18.943766     0.793766
 C    24.545956    21.363766     0.793766
 C    25.943144     2.003766     0.793766
 C    25.943144     4.423766     0.793766
 C    25.943144     6.843766     0.793766
 C    25.943144     9.263766     0.793766
 C    25.943144    11.683766     0.793766
 C    25.943144    14.103766     0.793766
 C    25.943144    16.523766     0.793766
 C    25.943144    18.943766     0.793766
 C    25.943144    21.363766     0.793766
 C    26.641738     3.213766     0.793766
 C    26.641738     5.633766     0.793766
 C    26.641738     8.053766     0.793766
 C    26.641738    10.473766     0.793766
 C    26.641738    12.893766     0.793766
 C    26.641738    15.313766     0.793766
 C    26.641738    17.733766     0.793766
 C    26.641738    20.153766     0.793766
 C    28.038925     3.213766     0.793766
 C    28.038925     5.633766     0.793766
 C    28.038925     8.053766     0.793766
 C    28.038925    10.473766     0.793766
 C    28.038925    12.893766     0.793766
 C    28.038925    15.313766     0.793766
 C    28.038925    17.733766     0.793766
 C    28.038925    20.153766     0.793766
 C    28.737519     2.003766     0.793766
 C    28.737519     4.423766     0.793766
 C    28.737519     6.843766     0.793766
 C    28.737519     9.263766     0.793766
 C    28.737519    11.683766     0.793766
 C    28.737519    14.103766     0.793766
 C    28.737519    16.523766     0.793766
 C    28.737519    18.943766     0.793766
 C    28.737519    21.363766     0.793766

C 0
S    4 1.00
  4.362    -0.133125                                                         
  0.4366    0.588818                                                         
  0.1723    0.383670                                                         
  0.08716   0.125656                                                         
P    4 1.00
  6.787     0.058729                                                         
  1.497     0.270572                                                         
  0.4297    0.521755                                                         
  0.1286    0.378990                                                         
****

C 0
ECP2CE 1 2
L=1 COMPONENT
 3
    2       5.352800        -.559313
    2      18.066800       -4.074550
    1      51.615900       -1.434846
L=0 COMPONENT
 4
    2       3.819100      -47.098215
    2       4.173200       71.589258
    1       6.270700       -4.675364
    0      12.211200        3.037970

